<?xml version="1.0" encoding="UTF-8"?>

<!-- generated on 05/25/20 19:04:39 by Eclipse SUMO netedit Version 1.5.0
<configuration xmlns:xsi="http://www.w3.org/2001/XMLSchema-instance" xsi:noNamespaceSchemaLocation="http://sumo.dlr.de/xsd/netconvertConfiguration.xsd">

    <input>
        <sumo-net-file value="C:\Users\novec\Google%20Drive\FYP\SUMO%20Demo\foresthill.net.xml"/>
    </input>

    <output>
        <output-file value="C:\Users\novec\Google%20Drive\FYP\SUMO%20Demo\foresthill.net.xml"/>
    </output>

    <processing>
        <geometry.min-radius.fix.railways value="false"/>
        <geometry.max-grade.fix value="false"/>
        <offset.disable-normalization value="true"/>
        <lefthand value="true"/>
    </processing>

    <junctions>
        <no-turnarounds value="true"/>
        <junctions.corner-detail value="5"/>
        <junctions.limit-turn-speed value="5.5"/>
        <rectangular-lane-cut value="false"/>
    </junctions>

    <pedestrian>
        <walkingareas value="false"/>
    </pedestrian>

    <netedit>
        <route-files value="C:\Users\novec\Google%20Drive\FYP\SUMO%20Demo\foresthill.rou.xml"/>
    </netedit>

    <report>
        <aggregate-warnings value="5"/>
    </report>

</configuration>
-->

<routes xmlns:xsi="http://www.w3.org/2001/XMLSchema-instance" xsi:noNamespaceSchemaLocation="http://sumo.dlr.de/xsd/routes_file.xsd">
    <route edges="-34286814#0 37356240#0 37356240#1 34286814#0 34286814#2 34286814#3 -34286814#3 -34286814#2 -28774530 -24039633#0" color="yellow" id="route_0"/>
    <vehicle id="veh0" depart="0.00" color="0,234,255" route="route_0"/>
</routes>
