<?xml version="1.0" encoding="UTF-8"?>

<!-- generated on 05/25/20 16:31:15 by Eclipse SUMO netconvert Version 1.5.0
<configuration xmlns:xsi="http://www.w3.org/2001/XMLSchema-instance" xsi:noNamespaceSchemaLocation="http://sumo.dlr.de/xsd/netconvertConfiguration.xsd">

    <input>
        <osm-files value="foresthill.osm"/>
    </input>

    <output>
        <output-file value="foresthill.net.xml"/>
    </output>

    <projection>
        <proj.utm value="true"/>
    </projection>

    <processing>
        <geometry.remove value="true"/>
        <roundabouts.guess value="true"/>
        <lefthand value="true"/>
    </processing>

    <tls_building>
        <tls.discard-simple value="true"/>
        <tls.join value="true"/>
        <tls.guess-signals value="true"/>
    </tls_building>

    <junctions>
        <junctions.join value="true"/>
    </junctions>

    <pedestrian>
        <sidewalks.guess value="true"/>
		<sidewalks.guess.from-permissions value="true"/>
    </pedestrian>

    <report>
        <aggregate-warnings value="5"/>
    </report>

</configuration>
-->

<net version="1.3" junctionCornerDetail="5" lefthand="true" limitTurnSpeed="5.50" xmlns:xsi="http://www.w3.org/2001/XMLSchema-instance" xsi:noNamespaceSchemaLocation="http://sumo.dlr.de/xsd/net_file.xsd">

    <location netOffset="-337493.99,4190527.35" convBoundary="0.00,-0.00,2812.90,2301.98" origBoundary="145.153329,-37.847996,145.185218,-37.827406" projParameter="+proj=utm +zone=55 +ellps=WGS84 +datum=WGS84 +units=m +no_defs"/>

    <type id="highway.bridleway" priority="1" numLanes="1" speed="2.78" allow="pedestrian" oneway="1" width="2.00"/>
    <type id="highway.bus_guideway" priority="1" numLanes="1" speed="27.78" allow="bus" oneway="1"/>
    <type id="highway.cycleway" priority="1" numLanes="1" speed="8.33" allow="bicycle" oneway="0" width="1.00"/>
    <type id="highway.footway" priority="1" numLanes="1" speed="2.78" allow="pedestrian" oneway="1" width="2.00"/>
    <type id="highway.ford" priority="1" numLanes="1" speed="2.78" allow="army" oneway="0"/>
    <type id="highway.living_street" priority="2" numLanes="1" speed="2.78" disallow="tram rail_urban rail rail_electric rail_fast ship" oneway="0"/>
    <type id="highway.motorway" priority="14" numLanes="2" speed="39.44" allow="private emergency authority army vip passenger hov taxi bus coach delivery truck trailer motorcycle evehicle custom1 custom2" oneway="1"/>
    <type id="highway.motorway_link" priority="9" numLanes="1" speed="22.22" allow="private emergency authority army vip passenger hov taxi bus coach delivery truck trailer motorcycle evehicle custom1 custom2" oneway="1"/>
    <type id="highway.path" priority="1" numLanes="1" speed="2.78" allow="pedestrian bicycle" oneway="1" width="2.00"/>
    <type id="highway.pedestrian" priority="1" numLanes="1" speed="2.78" allow="pedestrian" oneway="1" width="2.00"/>
    <type id="highway.primary" priority="12" numLanes="2" speed="27.78" disallow="tram rail_urban rail rail_electric rail_fast ship" oneway="0"/>
    <type id="highway.primary_link" priority="7" numLanes="1" speed="22.22" disallow="tram rail_urban rail rail_electric rail_fast ship" oneway="0"/>
    <type id="highway.raceway" priority="15" numLanes="2" speed="83.33" allow="vip" oneway="0"/>
    <type id="highway.residential" priority="3" numLanes="1" speed="13.89" disallow="tram rail_urban rail rail_electric rail_fast ship" oneway="0"/>
    <type id="highway.secondary" priority="11" numLanes="1" speed="27.78" disallow="tram rail_urban rail rail_electric rail_fast ship" oneway="0"/>
    <type id="highway.secondary_link" priority="6" numLanes="1" speed="22.22" disallow="tram rail_urban rail rail_electric rail_fast ship" oneway="0"/>
    <type id="highway.service" priority="1" numLanes="1" speed="5.56" allow="pedestrian delivery bicycle" oneway="0"/>
    <type id="highway.stairs" priority="1" numLanes="1" speed="1.39" allow="pedestrian" oneway="1" width="2.00"/>
    <type id="highway.step" priority="1" numLanes="1" speed="1.39" allow="pedestrian" oneway="1" width="2.00"/>
    <type id="highway.steps" priority="1" numLanes="1" speed="1.39" allow="pedestrian" oneway="1" width="2.00"/>
    <type id="highway.tertiary" priority="10" numLanes="1" speed="22.22" disallow="tram rail_urban rail rail_electric rail_fast ship" oneway="0"/>
    <type id="highway.tertiary_link" priority="5" numLanes="1" speed="22.22" disallow="tram rail_urban rail rail_electric rail_fast ship" oneway="0"/>
    <type id="highway.track" priority="1" numLanes="1" speed="5.56" disallow="tram rail_urban rail rail_electric rail_fast ship" oneway="0"/>
    <type id="highway.trunk" priority="13" numLanes="2" speed="27.78" disallow="pedestrian bicycle tram rail_urban rail rail_electric rail_fast ship" oneway="0"/>
    <type id="highway.trunk_link" priority="8" numLanes="1" speed="22.22" disallow="pedestrian bicycle tram rail_urban rail rail_electric rail_fast ship" oneway="0"/>
    <type id="highway.unclassified" priority="4" numLanes="1" speed="13.89" disallow="tram rail_urban rail rail_electric rail_fast ship" oneway="0"/>
    <type id="highway.unsurfaced" priority="1" numLanes="1" speed="8.33" disallow="tram rail_urban rail rail_electric rail_fast ship" oneway="0"/>
    <type id="railway.highspeed" priority="21" numLanes="1" speed="69.44" allow="rail_fast" oneway="1"/>
    <type id="railway.light_rail" priority="19" numLanes="1" speed="27.78" allow="rail_urban" oneway="1"/>
    <type id="railway.preserved" priority="16" numLanes="1" speed="27.78" allow="rail" oneway="1"/>
    <type id="railway.rail" priority="20" numLanes="1" speed="44.44" allow="rail" oneway="1"/>
    <type id="railway.subway" priority="18" numLanes="1" speed="27.78" allow="rail_urban" oneway="1"/>
    <type id="railway.tram" priority="17" numLanes="1" speed="13.89" allow="tram" oneway="1"/>

    <edge id=":102356195_0" function="internal">
        <lane id=":102356195_0_0" index="0" disallow="pedestrian bicycle tram rail_urban rail rail_electric rail_fast ship" speed="6.21" length="7.42" shape="1723.21,1456.00 1721.22,1455.93 1719.66,1455.25 1718.52,1453.97 1717.82,1452.08"/>
    </edge>
    <edge id=":102356195_1" function="internal">
        <lane id=":102356195_1_0" index="0" disallow="pedestrian bicycle tram rail_urban rail rail_electric rail_fast ship" speed="7.78" length="12.15" shape="1723.54,1459.18 1720.27,1459.06 1717.71,1457.96 1715.85,1455.87 1714.70,1452.78"/>
    </edge>
    <edge id=":102356195_2" function="internal">
        <lane id=":102356195_2_0" index="0" disallow="tram rail_urban rail rail_electric rail_fast ship" speed="19.44" length="13.21" shape="1723.87,1462.37 1720.29,1461.74 1718.09,1459.76 1715.90,1457.76 1712.31,1457.09"/>
    </edge>
    <edge id=":102356195_3" function="internal">
        <lane id=":102356195_3_0" index="0" disallow="pedestrian bicycle tram rail_urban rail rail_electric rail_fast ship" speed="22.22" length="12.75" shape="1720.52,1464.60 1717.82,1452.08"/>
        <lane id=":102356195_3_1" index="1" disallow="pedestrian bicycle tram rail_urban rail rail_electric rail_fast ship" speed="22.22" length="12.75" shape="1717.39,1465.24 1714.70,1452.78"/>
        <lane id=":102356195_3_2" index="2" disallow="pedestrian bicycle tram rail_urban rail rail_electric rail_fast ship" speed="22.22" length="12.75" shape="1714.26,1465.89 1711.57,1453.48"/>
    </edge>
    <edge id=":102356195_6" function="internal">
        <lane id=":102356195_6_0" index="0" disallow="pedestrian bicycle tram rail_urban rail rail_electric rail_fast ship" speed="5.64" length="5.98" shape="1714.26,1465.89 1714.05,1464.58 1713.73,1462.68 1713.25,1460.97 1712.60,1460.27"/>
    </edge>
    <edge id=":102356195_7" function="internal">
        <lane id=":102356195_7_0" index="0" disallow="pedestrian bicycle tram rail_urban rail rail_electric rail_fast ship" speed="4.27" length="3.01" shape="1714.26,1465.89 1714.10,1465.08 1713.87,1464.27 1713.50,1463.66 1712.89,1463.46"/>
    </edge>
    <edge id=":102356196_0" function="internal">
        <lane id=":102356196_0_0" index="0" disallow="tram rail_urban rail rail_electric rail_fast ship" speed="19.44" length="12.99" shape="1702.77,1457.95 1699.31,1458.77 1697.14,1460.10 1694.96,1461.46 1691.52,1462.38"/>
        <lane id=":102356196_0_1" index="1" disallow="tram rail_urban rail rail_electric rail_fast ship" speed="19.44" length="12.99" shape="1702.77,1457.95 1699.21,1459.28 1697.33,1461.68 1695.45,1464.12 1691.91,1465.56"/>
    </edge>
    <edge id=":102356196_2" function="internal">
        <lane id=":102356196_2_0" index="0" disallow="pedestrian bicycle tram rail_urban rail rail_electric rail_fast ship" speed="5.52" length="6.84" shape="1703.05,1461.14 1700.89,1461.56 1699.46,1462.38 1698.77,1463.59 1698.81,1465.18"/>
    </edge>
    <edge id=":102356196_3" function="internal">
        <lane id=":102356196_3_0" index="0" disallow="pedestrian bicycle tram rail_urban rail rail_electric rail_fast ship" speed="3.29" length="1.68" shape="1703.34,1464.33 1702.80,1464.28 1702.31,1464.16 1701.98,1464.16 1701.93,1464.47"/>
    </edge>
    <edge id=":102356196_4" function="internal">
        <lane id=":102356196_4_0" index="0" disallow="pedestrian bicycle tram rail_urban rail rail_electric rail_fast ship" speed="5.03" length="5.27" shape="1693.47,1455.30 1693.59,1456.87 1693.24,1458.04 1692.42,1458.82 1691.14,1459.20"/>
    </edge>
    <edge id=":102356196_5" function="internal">
        <lane id=":102356196_5_0" index="0" disallow="pedestrian bicycle tram rail_urban rail rail_electric rail_fast ship" speed="22.22" length="10.74" shape="1693.47,1455.30 1695.69,1465.90"/>
        <lane id=":102356196_5_1" index="1" disallow="pedestrian bicycle tram rail_urban rail rail_electric rail_fast ship" speed="22.22" length="10.74" shape="1696.61,1454.67 1698.81,1465.18"/>
        <lane id=":102356196_5_2" index="2" disallow="pedestrian bicycle tram rail_urban rail rail_electric rail_fast ship" speed="22.22" length="10.74" shape="1699.75,1454.05 1701.93,1464.47"/>
    </edge>
    <edge id=":1036717946_0" function="internal">
        <lane id=":1036717946_0_0" index="0" allow="pedestrian delivery bicycle" speed="5.06" length="5.02" shape="891.65,1374.77 890.29,1374.76 889.25,1374.31 888.54,1373.42 888.16,1372.09"/>
    </edge>
    <edge id=":1036717946_1" function="internal">
        <lane id=":1036717946_1_0" index="0" allow="pedestrian delivery bicycle" speed="5.56" length="9.40" shape="891.65,1374.77 882.34,1376.01"/>
    </edge>
    <edge id=":1036717946_2" function="internal">
        <lane id=":1036717946_2_0" index="0" allow="pedestrian delivery bicycle" speed="3.65" length="4.67" shape="891.65,1374.77 890.57,1375.72 890.28,1376.57 890.78,1377.31 892.08,1377.94"/>
    </edge>
    <edge id=":1036717946_3" function="internal">
        <lane id=":1036717946_3_0" index="0" allow="pedestrian delivery bicycle" speed="5.56" length="9.40" shape="882.76,1379.19 892.08,1377.94"/>
    </edge>
    <edge id=":1036717946_4" function="internal">
        <lane id=":1036717946_4_0" index="0" allow="pedestrian delivery bicycle" speed="5.56" length="10.18" shape="882.76,1379.19 885.45,1378.43 887.24,1376.99 888.15,1374.88 888.16,1372.09"/>
    </edge>
    <edge id=":1036717946_5" function="internal">
        <lane id=":1036717946_5_0" index="0" allow="pedestrian delivery bicycle" speed="3.65" length="4.67" shape="882.76,1379.19 883.84,1378.23 884.13,1377.39 883.63,1376.65 882.34,1376.01"/>
    </edge>
    <edge id=":1036717946_6" function="internal">
        <lane id=":1036717946_6_0" index="0" allow="pedestrian delivery bicycle" speed="5.04" length="5.00" shape="884.99,1372.53 884.98,1373.90 884.54,1374.94 883.66,1375.64 882.34,1376.01"/>
    </edge>
    <edge id=":1036717946_7" function="internal">
        <lane id=":1036717946_7_0" index="0" allow="pedestrian delivery bicycle" speed="5.56" length="10.16" shape="884.99,1372.53 885.76,1375.21 887.19,1377.00 889.30,1377.92 892.08,1377.94"/>
    </edge>
    <edge id=":1036717946_8" function="internal">
        <lane id=":1036717946_8_0" index="0" allow="pedestrian delivery bicycle" speed="3.65" length="4.67" shape="884.99,1372.53 885.95,1373.61 886.79,1373.89 887.53,1373.39 888.16,1372.09"/>
    </edge>
    <edge id=":1036717955_0" function="internal">
        <lane id=":1036717955_0_0" index="0" allow="pedestrian delivery bicycle" speed="5.56" length="9.53" shape="906.20,1379.20 904.83,1369.77"/>
    </edge>
    <edge id=":1036717955_1" function="internal">
        <lane id=":1036717955_1_0" index="0" allow="pedestrian delivery bicycle" speed="5.56" length="10.23" shape="906.20,1379.20 905.44,1376.52 904.00,1374.72 901.87,1373.81 899.05,1373.79"/>
    </edge>
    <edge id=":1036717955_2" function="internal">
        <lane id=":1036717955_2_0" index="0" allow="pedestrian delivery bicycle" speed="3.65" length="4.67" shape="906.20,1379.20 905.25,1378.12 904.40,1377.82 903.66,1378.33 903.02,1379.62"/>
    </edge>
    <edge id=":1036717955_3" function="internal">
        <lane id=":1036717955_3_0" index="0" allow="pedestrian delivery bicycle" speed="5.06" length="5.06" shape="899.47,1376.96 900.87,1376.97 901.93,1377.42 902.65,1378.30 903.02,1379.62"/>
    </edge>
    <edge id=":1036717955_4" function="internal">
        <lane id=":1036717955_4_0" index="0" allow="pedestrian delivery bicycle" speed="5.56" length="10.29" shape="899.47,1376.96 902.19,1376.19 903.99,1374.74 904.87,1372.60 904.83,1369.77"/>
    </edge>
    <edge id=":1036717955_5" function="internal">
        <lane id=":1036717955_5_0" index="0" allow="pedestrian delivery bicycle" speed="3.65" length="4.67" shape="899.47,1376.96 900.55,1376.01 900.85,1375.16 900.34,1374.42 899.05,1373.79"/>
    </edge>
    <edge id=":1036717955_6" function="internal">
        <lane id=":1036717955_6_0" index="0" allow="pedestrian delivery bicycle" speed="5.01" length="5.03" shape="901.67,1370.27 901.69,1371.65 901.26,1372.70 900.38,1373.41 899.05,1373.79"/>
    </edge>
    <edge id=":1036717955_7" function="internal">
        <lane id=":1036717955_7_0" index="0" allow="pedestrian delivery bicycle" speed="5.56" length="9.44" shape="901.67,1370.27 903.02,1379.62"/>
    </edge>
    <edge id=":1036717955_8" function="internal">
        <lane id=":1036717955_8_0" index="0" allow="pedestrian delivery bicycle" speed="3.65" length="4.67" shape="901.67,1370.27 902.65,1371.33 903.50,1371.60 904.23,1371.08 904.83,1369.77"/>
    </edge>
    <edge id=":1036717960_0" function="internal">
        <lane id=":1036717960_0_0" index="0" allow="pedestrian delivery bicycle" speed="3.65" length="4.67" shape="870.85,1440.53 872.02,1439.69 872.40,1438.87 871.97,1438.09 870.74,1437.33"/>
    </edge>
    <edge id=":1036717970_0" function="internal">
        <lane id=":1036717970_0_0" index="0" allow="pedestrian delivery bicycle" speed="3.65" length="4.67" shape="905.43,1398.46 906.37,1399.55 907.21,1399.85 907.96,1399.35 908.60,1398.06"/>
    </edge>
    <edge id=":1036722192_0" function="internal">
        <lane id=":1036722192_0_0" index="0" allow="pedestrian delivery bicycle" speed="5.05" length="5.02" shape="1022.77,1514.25 1021.40,1514.25 1020.36,1513.80 1019.65,1512.92 1019.27,1511.59"/>
    </edge>
    <edge id=":1036722192_1" function="internal">
        <lane id=":1036722192_1_0" index="0" allow="pedestrian delivery bicycle" speed="5.56" length="9.41" shape="1022.77,1514.25 1013.44,1515.52"/>
    </edge>
    <edge id=":1036722192_2" function="internal">
        <lane id=":1036722192_2_0" index="0" allow="pedestrian delivery bicycle" speed="3.65" length="4.67" shape="1022.77,1514.25 1021.69,1515.21 1021.41,1516.06 1021.91,1516.80 1023.21,1517.42"/>
    </edge>
    <edge id=":1036722192_3" function="internal">
        <lane id=":1036722192_3_0" index="0" allow="pedestrian delivery bicycle" speed="5.56" length="9.44" shape="1013.86,1518.69 1023.21,1517.42"/>
    </edge>
    <edge id=":1036722192_4" function="internal">
        <lane id=":1036722192_4_0" index="0" allow="pedestrian delivery bicycle" speed="5.56" length="10.20" shape="1013.86,1518.69 1016.55,1517.94 1018.35,1516.51 1019.26,1514.39 1019.27,1511.59"/>
    </edge>
    <edge id=":1036722192_5" function="internal">
        <lane id=":1036722192_5_0" index="0" allow="pedestrian delivery bicycle" speed="3.65" length="4.67" shape="1013.86,1518.69 1014.94,1517.74 1015.23,1516.90 1014.73,1516.16 1013.44,1515.52"/>
    </edge>
    <edge id=":1036722192_6" function="internal">
        <lane id=":1036722192_6_0" index="0" allow="pedestrian delivery bicycle" speed="5.03" length="5.01" shape="1016.10,1512.03 1016.09,1513.41 1015.65,1514.45 1014.76,1515.15 1013.44,1515.52"/>
    </edge>
    <edge id=":1036722192_7" function="internal">
        <lane id=":1036722192_7_0" index="0" allow="pedestrian delivery bicycle" speed="5.56" length="10.18" shape="1016.10,1512.03 1016.87,1514.72 1018.31,1516.51 1020.43,1517.41 1023.21,1517.42"/>
    </edge>
    <edge id=":1036722192_8" function="internal">
        <lane id=":1036722192_8_0" index="0" allow="pedestrian delivery bicycle" speed="3.65" length="4.67" shape="1016.10,1512.03 1017.06,1513.11 1017.90,1513.40 1018.64,1512.89 1019.27,1511.59"/>
    </edge>
    <edge id=":1036722195_0" function="internal">
        <lane id=":1036722195_0_0" index="0" allow="pedestrian delivery bicycle" speed="5.56" length="9.63" shape="1135.66,1488.58 1135.15,1485.79 1134.43,1483.94 1133.73,1482.09 1133.27,1479.30"/>
    </edge>
    <edge id=":1036722195_1" function="internal">
        <lane id=":1036722195_1_0" index="0" allow="pedestrian delivery bicycle" speed="5.56" length="10.40" shape="1135.66,1488.58 1134.99,1485.79 1133.59,1483.93 1131.46,1482.99 1128.59,1482.98"/>
    </edge>
    <edge id=":1036722195_2" function="internal">
        <lane id=":1036722195_2_0" index="0" allow="pedestrian delivery bicycle" speed="3.65" length="4.67" shape="1135.66,1488.58 1134.75,1487.46 1133.92,1487.13 1133.16,1487.60 1132.47,1488.87"/>
    </edge>
    <edge id=":1036722195_3" function="internal">
        <lane id=":1036722195_3_0" index="0" allow="pedestrian delivery bicycle" speed="4.99" length="5.06" shape="1129.03,1486.15 1130.43,1486.15 1131.46,1486.61 1132.15,1487.52 1132.47,1488.87"/>
    </edge>
    <edge id=":1036722195_4" function="internal">
        <lane id=":1036722195_4_0" index="0" allow="pedestrian delivery bicycle" speed="5.56" length="9.02" shape="1129.03,1486.15 1131.06,1485.47 1132.45,1484.11 1133.18,1482.05 1133.27,1479.30"/>
    </edge>
    <edge id=":1036722195_5" function="internal">
        <lane id=":1036722195_5_0" index="0" allow="pedestrian delivery bicycle" speed="3.65" length="4.67" shape="1129.03,1486.15 1130.11,1485.19 1130.39,1484.34 1129.89,1483.61 1128.59,1482.98"/>
    </edge>
    <edge id=":1037969884_0" function="internal">
        <lane id=":1037969884_0_0" index="0" allow="pedestrian delivery bicycle" speed="3.65" length="4.67" shape="1053.91,1536.12 1052.95,1535.04 1052.10,1534.76 1051.37,1535.26 1050.74,1536.56"/>
    </edge>
    <edge id=":1037969894_0" function="internal">
        <lane id=":1037969894_0_0" index="0" allow="pedestrian delivery bicycle" speed="5.05" length="5.01" shape="1092.11,1520.52 1090.74,1520.52 1089.70,1520.07 1088.99,1519.19 1088.61,1517.87"/>
    </edge>
    <edge id=":1037969894_1" function="internal">
        <lane id=":1037969894_1_0" index="0" allow="pedestrian delivery bicycle" speed="5.56" length="9.40" shape="1092.11,1520.52 1082.80,1521.81"/>
    </edge>
    <edge id=":1037969894_2" function="internal">
        <lane id=":1037969894_2_0" index="0" allow="pedestrian delivery bicycle" speed="3.65" length="4.67" shape="1092.11,1520.52 1091.03,1521.48 1090.75,1522.33 1091.25,1523.06 1092.55,1523.69"/>
    </edge>
    <edge id=":1037969894_3" function="internal">
        <lane id=":1037969894_3_0" index="0" allow="pedestrian delivery bicycle" speed="5.56" length="9.40" shape="1083.24,1524.98 1092.55,1523.69"/>
    </edge>
    <edge id=":1037969894_4" function="internal">
        <lane id=":1037969894_4_0" index="0" allow="pedestrian delivery bicycle" speed="5.56" length="10.17" shape="1083.24,1524.98 1085.92,1524.21 1087.71,1522.77 1088.61,1520.66 1088.61,1517.87"/>
    </edge>
    <edge id=":1037969894_5" function="internal">
        <lane id=":1037969894_5_0" index="0" allow="pedestrian delivery bicycle" speed="3.65" length="4.67" shape="1083.24,1524.98 1084.32,1524.02 1084.61,1523.17 1084.10,1522.44 1082.80,1521.81"/>
    </edge>
    <edge id=":1037969894_6" function="internal">
        <lane id=":1037969894_6_0" index="0" allow="pedestrian delivery bicycle" speed="5.04" length="5.00" shape="1085.45,1518.31 1085.44,1519.68 1085.00,1520.72 1084.12,1521.43 1082.80,1521.81"/>
    </edge>
    <edge id=":1037969894_7" function="internal">
        <lane id=":1037969894_7_0" index="0" allow="pedestrian delivery bicycle" speed="5.56" length="10.16" shape="1085.45,1518.31 1086.22,1520.99 1087.66,1522.78 1089.77,1523.68 1092.55,1523.69"/>
    </edge>
    <edge id=":1037969894_8" function="internal">
        <lane id=":1037969894_8_0" index="0" allow="pedestrian delivery bicycle" speed="3.65" length="4.67" shape="1085.45,1518.31 1086.40,1519.39 1087.25,1519.67 1087.99,1519.17 1088.61,1517.87"/>
    </edge>
    <edge id=":1037969899_0" function="internal">
        <lane id=":1037969899_0_0" index="0" allow="pedestrian delivery bicycle" speed="5.56" length="9.40" shape="1137.15,1504.79 1136.29,1495.42"/>
    </edge>
    <edge id=":1037969899_1" function="internal">
        <lane id=":1037969899_1_0" index="0" allow="pedestrian delivery bicycle" speed="5.56" length="10.39" shape="1137.15,1504.79 1136.49,1502.00 1135.09,1500.14 1132.95,1499.20 1130.08,1499.19"/>
    </edge>
    <edge id=":1037969899_2" function="internal">
        <lane id=":1037969899_2_0" index="0" allow="pedestrian delivery bicycle" speed="3.65" length="4.67" shape="1137.15,1504.79 1136.25,1503.67 1135.41,1503.34 1134.65,1503.82 1133.97,1505.08"/>
    </edge>
    <edge id=":1037969899_3" function="internal">
        <lane id=":1037969899_3_0" index="0" allow="pedestrian delivery bicycle" speed="4.99" length="5.06" shape="1130.53,1502.36 1131.92,1502.37 1132.96,1502.82 1133.64,1503.73 1133.97,1505.08"/>
    </edge>
    <edge id=":1037969899_4" function="internal">
        <lane id=":1037969899_4_0" index="0" allow="pedestrian delivery bicycle" speed="5.56" length="10.18" shape="1130.53,1502.36 1133.26,1501.60 1135.13,1500.19 1136.14,1498.13 1136.29,1495.42"/>
    </edge>
    <edge id=":1037969899_5" function="internal">
        <lane id=":1037969899_5_0" index="0" allow="pedestrian delivery bicycle" speed="3.65" length="4.67" shape="1130.53,1502.36 1131.61,1501.40 1131.89,1500.56 1131.38,1499.82 1130.08,1499.19"/>
    </edge>
    <edge id=":1037969899_6" function="internal">
        <lane id=":1037969899_6_0" index="0" allow="pedestrian delivery bicycle" speed="5.20" length="5.19" shape="1133.10,1495.72 1133.02,1497.07 1132.49,1498.09 1131.51,1498.80 1130.08,1499.19"/>
    </edge>
    <edge id=":1037969899_7" function="internal">
        <lane id=":1037969899_7_0" index="0" allow="pedestrian delivery bicycle" speed="5.56" length="9.41" shape="1133.10,1495.72 1133.97,1505.08"/>
    </edge>
    <edge id=":1037969899_8" function="internal">
        <lane id=":1037969899_8_0" index="0" allow="pedestrian delivery bicycle" speed="3.65" length="4.67" shape="1133.10,1495.72 1134.01,1496.84 1134.84,1497.16 1135.60,1496.69 1136.29,1495.42"/>
    </edge>
    <edge id=":1037969929_0" function="internal">
        <lane id=":1037969929_0_0" index="0" allow="pedestrian delivery bicycle" speed="5.11" length="5.11" shape="1089.92,1504.83 1088.54,1504.82 1087.48,1504.37 1086.74,1503.47 1086.33,1502.12"/>
    </edge>
    <edge id=":1037969929_1" function="internal">
        <lane id=":1037969929_1_0" index="0" allow="pedestrian delivery bicycle" speed="5.56" length="9.45" shape="1089.92,1504.83 1080.56,1506.14"/>
    </edge>
    <edge id=":1037969929_2" function="internal">
        <lane id=":1037969929_2_0" index="0" allow="pedestrian delivery bicycle" speed="5.56" length="10.16" shape="1089.92,1504.83 1087.25,1505.60 1085.46,1507.05 1084.56,1509.16 1084.56,1511.94"/>
    </edge>
    <edge id=":1037969929_3" function="internal">
        <lane id=":1037969929_3_0" index="0" allow="pedestrian delivery bicycle" speed="3.65" length="4.67" shape="1089.92,1504.83 1088.84,1505.79 1088.56,1506.64 1089.06,1507.37 1090.36,1508.00"/>
    </edge>
    <edge id=":1037969929_4" function="internal">
        <lane id=":1037969929_4_0" index="0" allow="pedestrian delivery bicycle" speed="5.04" length="5.00" shape="1087.72,1511.50 1087.73,1510.13 1088.17,1509.09 1089.05,1508.38 1090.36,1508.00"/>
    </edge>
    <edge id=":1037969929_5" function="internal">
        <lane id=":1037969929_5_0" index="0" allow="pedestrian delivery bicycle" speed="5.56" length="9.48" shape="1087.72,1511.50 1086.33,1502.12"/>
    </edge>
    <edge id=":1037969929_6" function="internal">
        <lane id=":1037969929_6_0" index="0" allow="pedestrian delivery bicycle" speed="5.56" length="10.20" shape="1087.72,1511.50 1086.95,1508.83 1085.50,1507.04 1083.37,1506.15 1080.56,1506.14"/>
    </edge>
    <edge id=":1037969929_7" function="internal">
        <lane id=":1037969929_7_0" index="0" allow="pedestrian delivery bicycle" speed="3.65" length="4.67" shape="1087.72,1511.50 1086.77,1510.42 1085.92,1510.14 1085.18,1510.65 1084.56,1511.94"/>
    </edge>
    <edge id=":1037969929_8" function="internal">
        <lane id=":1037969929_8_0" index="0" allow="pedestrian delivery bicycle" speed="5.06" length="5.04" shape="1081.00,1509.31 1082.40,1509.31 1083.45,1509.75 1084.17,1510.63 1084.56,1511.94"/>
    </edge>
    <edge id=":1037969929_9" function="internal">
        <lane id=":1037969929_9_0" index="0" allow="pedestrian delivery bicycle" speed="5.56" length="9.45" shape="1081.00,1509.31 1090.36,1508.00"/>
    </edge>
    <edge id=":1037969929_10" function="internal">
        <lane id=":1037969929_10_0" index="0" allow="pedestrian delivery bicycle" speed="5.56" length="10.24" shape="1081.00,1509.31 1083.71,1508.53 1085.50,1507.07 1086.37,1504.93 1086.33,1502.12"/>
    </edge>
    <edge id=":1037969929_11" function="internal">
        <lane id=":1037969929_11_0" index="0" allow="pedestrian delivery bicycle" speed="3.65" length="4.67" shape="1081.00,1509.31 1082.08,1508.35 1082.37,1507.50 1081.86,1506.77 1080.56,1506.14"/>
    </edge>
    <edge id=":1037969929_12" function="internal">
        <lane id=":1037969929_12_0" index="0" allow="pedestrian delivery bicycle" speed="5.02" length="5.02" shape="1083.17,1502.62 1083.19,1504.00 1082.76,1505.04 1081.88,1505.76 1080.56,1506.14"/>
    </edge>
    <edge id=":1037969929_13" function="internal">
        <lane id=":1037969929_13_0" index="0" allow="pedestrian delivery bicycle" speed="5.56" length="9.43" shape="1083.17,1502.62 1084.56,1511.94"/>
    </edge>
    <edge id=":1037969929_14" function="internal">
        <lane id=":1037969929_14_0" index="0" allow="pedestrian delivery bicycle" speed="5.56" length="10.21" shape="1083.17,1502.62 1083.99,1505.30 1085.46,1507.09 1087.59,1507.99 1090.36,1508.00"/>
    </edge>
    <edge id=":1037969929_15" function="internal">
        <lane id=":1037969929_15_0" index="0" allow="pedestrian delivery bicycle" speed="3.65" length="4.67" shape="1083.17,1502.62 1084.15,1503.68 1085.00,1503.95 1085.73,1503.43 1086.33,1502.12"/>
    </edge>
    <edge id=":1037978701_0" function="internal">
        <lane id=":1037978701_0_0" index="0" allow="pedestrian delivery bicycle" speed="5.04" length="5.00" shape="1198.88,1211.93 1197.51,1211.92 1196.47,1211.47 1195.76,1210.59 1195.38,1209.27"/>
    </edge>
    <edge id=":1037978701_1" function="internal">
        <lane id=":1037978701_1_0" index="0" allow="pedestrian delivery bicycle" speed="5.56" length="10.16" shape="1198.88,1211.93 1196.20,1212.69 1194.40,1214.12 1193.50,1216.23 1193.48,1219.02"/>
    </edge>
    <edge id=":1037978701_2" function="internal">
        <lane id=":1037978701_2_0" index="0" allow="pedestrian delivery bicycle" speed="3.65" length="4.67" shape="1198.88,1211.93 1197.79,1212.88 1197.51,1213.73 1198.01,1214.47 1199.31,1215.10"/>
    </edge>
    <edge id=":1037978701_3" function="internal">
        <lane id=":1037978701_3_0" index="0" allow="pedestrian delivery bicycle" speed="5.04" length="5.00" shape="1196.65,1218.59 1196.66,1217.21 1197.10,1216.18 1197.99,1215.47 1199.31,1215.10"/>
    </edge>
    <edge id=":1037978701_4" function="internal">
        <lane id=":1037978701_4_0" index="0" allow="pedestrian delivery bicycle" speed="5.56" length="9.40" shape="1196.65,1218.59 1195.38,1209.27"/>
    </edge>
    <edge id=":1037978701_5" function="internal">
        <lane id=":1037978701_5_0" index="0" allow="pedestrian delivery bicycle" speed="3.65" length="4.67" shape="1196.65,1218.59 1195.69,1217.50 1194.85,1217.21 1194.11,1217.72 1193.48,1219.02"/>
    </edge>
    <edge id=":1037978701_6" function="internal">
        <lane id=":1037978701_6_0" index="0" allow="pedestrian delivery bicycle" speed="5.56" length="9.40" shape="1192.21,1209.70 1193.48,1219.02"/>
    </edge>
    <edge id=":1037978701_7" function="internal">
        <lane id=":1037978701_7_0" index="0" allow="pedestrian delivery bicycle" speed="5.56" length="10.16" shape="1192.21,1209.70 1192.97,1212.38 1194.41,1214.17 1196.52,1215.08 1199.31,1215.10"/>
    </edge>
    <edge id=":1037978701_8" function="internal">